data_image0
_cell_length_a       1
_cell_length_b       2
_cell_length_c       3
_cell_angle_alpha    90
_cell_angle_beta     90
_cell_angle_gamma    90

loop_
  _atom_site_label
  _atom_site_occupancy
  _atom_site_fract_x
  _atom_site_fract_y
  _atom_site_fract_z
  _atom_site_thermal_displace_type
  _atom_site_B_iso_or_equiv
  _atom_site_type_symbol
  Xe1      1.0000 0.20000  0.10000  0.06667  Biso   1.000  Xe
  C1       1.0000 0.70000  0.60000  0.63333  Biso   1.000  C
  Xe2      1.0000 0.20000  0.90000  0.56667  Biso   1.000  Xe
  C2       1.0000 0.70000  0.40000  1.13333  Biso   1.000  C
