data_image0
_cell_length_a       3.60555
_cell_length_b       1
_cell_length_c       11.6619
_cell_angle_alpha    90
_cell_angle_beta     92.7263
_cell_angle_gamma    90

_symmetry_space_group_name_H-M    "P 1"
_symmetry_int_tables_number       1

loop_
  _symmetry_equiv_pos_as_xyz
  'x, y, z'

loop_
  _atom_site_label
  _atom_site_occupancy
  _atom_site_fract_x
  _atom_site_fract_y
  _atom_site_fract_z
  _atom_site_thermal_displace_type
  _atom_site_B_iso_or_equiv
  _atom_site_type_symbol
  Xe1      1.0000 0.10714  0.25000  0.07143  Biso   1.000  Xe
  C1       1.0000 0.09524  0.75000  0.11905  Biso   1.000  C
  Xe2      1.0000 0.82143  0.25000  0.21429  Biso   1.000  Xe
  C2       1.0000 0.80952  0.75000  0.26190  Biso   1.000  C
  Xe3      1.0000 0.53571  0.25000  0.35714  Biso   1.000  Xe
  C3       1.0000 0.52381  0.75000  0.40476  Biso   1.000  C
  Xe4      1.0000 0.82143  0.25000  0.21429  Biso   1.000  Xe
  C4       1.0000 0.80952  0.75000  0.26190  Biso   1.000  C
  Xe5      1.0000 0.32143  0.25000  0.21429  Biso   1.000  Xe
  C5       1.0000 0.45238  0.75000  0.19048  Biso   1.000  C
  Xe6      1.0000 0.53571  0.25000  0.35714  Biso   1.000  Xe
  C6       1.0000 0.52381  0.75000  0.40476  Biso   1.000  C
  Xe7      1.0000 0.03571  0.25000  0.35714  Biso   1.000  Xe
  C7       1.0000 0.16667  0.75000  0.33333  Biso   1.000  C
  Xe8      1.0000 0.25000  0.25000  0.50000  Biso   1.000  Xe
  C8       1.0000 0.23810  0.75000  0.54762  Biso   1.000  C
  Xe9      1.0000 0.75000  0.25000  0.50000  Biso   1.000  Xe
  C9       1.0000 0.88095  0.75000  0.47619  Biso   1.000  C
  Xe10     1.0000 0.53571  0.25000  0.35714  Biso   1.000  Xe
  C10      1.0000 0.52381  0.75000  0.40476  Biso   1.000  C
  Xe11     1.0000 0.03571  0.25000  0.35714  Biso   1.000  Xe
  C11      1.0000 0.16667  0.75000  0.33333  Biso   1.000  C
  Xe12     1.0000 0.25000  0.25000  0.50000  Biso   1.000  Xe
  C12      1.0000 0.23810  0.75000  0.54762  Biso   1.000  C
  Xe13     1.0000 0.75000  0.25000  0.50000  Biso   1.000  Xe
  C13      1.0000 0.88095  0.75000  0.47619  Biso   1.000  C
  Xe14     1.0000 0.96429  0.25000  0.64286  Biso   1.000  Xe
  C14      1.0000 0.95238  0.75000  0.69048  Biso   1.000  C
  Xe15     1.0000 0.46429  0.25000  0.64286  Biso   1.000  Xe
  C15      1.0000 0.59524  0.75000  0.61905  Biso   1.000  C
  Xe16     1.0000 0.25000  0.25000  0.50000  Biso   1.000  Xe
  C16      1.0000 0.23810  0.75000  0.54762  Biso   1.000  C
  Xe17     1.0000 0.75000  0.25000  0.50000  Biso   1.000  Xe
  C17      1.0000 0.88095  0.75000  0.47619  Biso   1.000  C
  Xe18     1.0000 0.96429  0.25000  0.64286  Biso   1.000  Xe
  C18      1.0000 0.95238  0.75000  0.69048  Biso   1.000  C
  Xe19     1.0000 0.46429  0.25000  0.64286  Biso   1.000  Xe
  C19      1.0000 0.59524  0.75000  0.61905  Biso   1.000  C
  Xe20     1.0000 0.67857  0.25000  0.78571  Biso   1.000  Xe
  C20      1.0000 0.66667  0.75000  0.83333  Biso   1.000  C
  Xe21     1.0000 0.17857  0.25000  0.78571  Biso   1.000  Xe
  C21      1.0000 0.30952  0.75000  0.76190  Biso   1.000  C
  Xe22     1.0000 0.46429  0.25000  0.64286  Biso   1.000  Xe
  C22      1.0000 0.59524  0.75000  0.61905  Biso   1.000  C
  Xe23     1.0000 0.17857  0.25000  0.78571  Biso   1.000  Xe
  C23      1.0000 0.30952  0.75000  0.76190  Biso   1.000  C
  Xe24     1.0000 0.89286  0.25000  0.92857  Biso   1.000  Xe
  C24      1.0000 1.02381  0.75000  0.90476  Biso   1.000  C
