data_image0
_cell_length_a       4.1
_cell_length_b       11.8
_cell_length_c       27.3
_cell_angle_alpha    90
_cell_angle_beta     77.8
_cell_angle_gamma    90

_symmetry_space_group_name_H-M    "P 1"
_symmetry_int_tables_number       1

loop_
  _symmetry_equiv_pos_as_xyz
  'x, y, z'

loop_
  _atom_site_label
  _atom_site_occupancy
  _atom_site_fract_x
  _atom_site_fract_y
  _atom_site_fract_z
  _atom_site_thermal_displace_type
  _atom_site_B_iso_or_equiv
  _atom_site_type_symbol
  C1       1.0000 0.95280  0.91475  0.10607  Biso   1.000  C
  C2       1.0000 0.80274  0.01797  0.12743  Biso   1.000  C
  C3       1.0000 0.55972  0.01059  0.17274  Biso   1.000  C
  C4       1.0000 0.47483  0.90729  0.19597  Biso   1.000  C
  C5       1.0000 0.62650  0.80610  0.17555  Biso   1.000  C
  C6       1.0000 0.86131  0.81110  0.13088  Biso   1.000  C
  C7       1.0000 0.19880  0.91534  0.05847  Biso   1.000  C
  C8       1.0000 0.80884  0.22932  0.12327  Biso   1.000  C
  C9       1.0000 0.70320  0.31203  0.09261  Biso   1.000  C
  C10      1.0000 0.64762  0.42390  0.11079  Biso   1.000  C
  C11      1.0000 0.69005  0.44966  0.15899  Biso   1.000  C
  C12      1.0000 0.79288  0.36712  0.18904  Biso   1.000  C
  C13      1.0000 0.85516  0.25720  0.17113  Biso   1.000  C
  C14      1.0000 0.65774  0.28000  0.04120  Biso   1.000  C
  C15      1.0000 0.53889  0.51593  0.07939  Biso   1.000  C
  N1       1.0000 0.88428  0.11932  0.10363  Biso   1.000  N
  O1       1.0000 0.33237  0.81263  0.04449  Biso   1.000  O
  O2       1.0000 0.28700  0.99873  0.03202  Biso   1.000  O
  H1       1.0000 0.43436  0.08754  0.18885  Biso   1.000  H
  H2       1.0000 0.28483  0.90517  0.23064  Biso   1.000  H
  H3       1.0000 0.55912  0.72534  0.19414  Biso   1.000  H
  H4       1.0000 0.98013  0.73407  0.11386  Biso   1.000  H
  H5       1.0000 0.64325  0.53593  0.17300  Biso   1.000  H
  H6       1.0000 0.82905  0.38881  0.22626  Biso   1.000  H
  H7       1.0000 0.94582  0.19280  0.19354  Biso   1.000  H
  H8       1.0000 0.89292  0.29042  0.01290  Biso   1.000  H
  H9       1.0000 0.58089  0.19110  0.04000  Biso   1.000  H
  H10      1.0000 0.46706  0.33271  0.02920  Biso   1.000  H
  H11      1.0000 0.74066  0.53805  0.04727  Biso   1.000  H
  H12      1.0000 0.31741  0.49161  0.06466  Biso   1.000  H
  H13      1.0000 0.47387  0.59339  0.10150  Biso   1.000  H
  H14      1.0000 0.04392  0.11271  0.06957  Biso   1.000  H
  H15      1.0000 0.49679  0.82161  0.01328  Biso   1.000  H
  C16      1.0000 0.95280  0.08525  0.60607  Biso   1.000  C
  C17      1.0000 0.80274  0.98203  0.62743  Biso   1.000  C
  C18      1.0000 0.55972  0.98941  0.67274  Biso   1.000  C
  C19      1.0000 0.47483  0.09271  0.69597  Biso   1.000  C
  C20      1.0000 0.62650  0.19390  0.67555  Biso   1.000  C
  C21      1.0000 0.86131  0.18890  0.63088  Biso   1.000  C
  C22      1.0000 0.19880  0.08466  0.55847  Biso   1.000  C
  C23      1.0000 0.80884  0.77068  0.62327  Biso   1.000  C
  C24      1.0000 0.70320  0.68797  0.59261  Biso   1.000  C
  C25      1.0000 0.64762  0.57610  0.61079  Biso   1.000  C
  C26      1.0000 0.69005  0.55034  0.65899  Biso   1.000  C
  C27      1.0000 0.79288  0.63288  0.68904  Biso   1.000  C
  C28      1.0000 0.85516  0.74280  0.67113  Biso   1.000  C
  C29      1.0000 0.65774  0.72000  0.54120  Biso   1.000  C
  C30      1.0000 0.53889  0.48407  0.57939  Biso   1.000  C
  N2       1.0000 0.88428  0.88068  0.60363  Biso   1.000  N
  O3       1.0000 0.33237  0.18737  0.54449  Biso   1.000  O
  O4       1.0000 0.28700  0.00127  0.53202  Biso   1.000  O
  H16      1.0000 0.43436  0.91246  0.68885  Biso   1.000  H
  H17      1.0000 0.28483  0.09483  0.73064  Biso   1.000  H
  H18      1.0000 0.55912  0.27466  0.69414  Biso   1.000  H
  H19      1.0000 0.98013  0.26593  0.61386  Biso   1.000  H
  H20      1.0000 0.64325  0.46407  0.67300  Biso   1.000  H
  H21      1.0000 0.82905  0.61119  0.72626  Biso   1.000  H
  H22      1.0000 0.94582  0.80720  0.69354  Biso   1.000  H
  H23      1.0000 0.89292  0.70958  0.51290  Biso   1.000  H
  H24      1.0000 0.58089  0.80890  0.54000  Biso   1.000  H
  H25      1.0000 0.46706  0.66729  0.52920  Biso   1.000  H
  H26      1.0000 0.74066  0.46195  0.54727  Biso   1.000  H
  H27      1.0000 0.31741  0.50839  0.56466  Biso   1.000  H
  H28      1.0000 0.47387  0.40661  0.60150  Biso   1.000  H
  H29      1.0000 0.04392  0.88729  0.56957  Biso   1.000  H
  H30      1.0000 0.49679  0.17839  0.51328  Biso   1.000  H
  C31      1.0000 0.15634  0.91602  0.88834  Biso   1.000  C
  C32      1.0000 0.29406  0.81339  0.86466  Biso   1.000  C
  C33      1.0000 0.54441  0.82305  0.82021  Biso   1.000  C
  C34      1.0000 0.64684  0.92805  0.79993  Biso   1.000  C
  C35      1.0000 0.50689  0.02873  0.82261  Biso   1.000  C
  C36      1.0000 0.26514  0.02136  0.86649  Biso   1.000  C
  C37      1.0000 0.90268  0.91288  0.93515  Biso   1.000  C
  C38      1.0000 0.28387  0.60220  0.86462  Biso   1.000  C
  C39      1.0000 0.39763  0.51898  0.89419  Biso   1.000  C
  C40      1.0000 0.46748  0.40898  0.87436  Biso   1.000  C
  C41      1.0000 0.43115  0.38585  0.82564  Biso   1.000  C
  C42      1.0000 0.32080  0.46898  0.79660  Biso   1.000  C
  C43      1.0000 0.24395  0.57678  0.81620  Biso   1.000  C
  C44      1.0000 0.43604  0.54822  0.94628  Biso   1.000  C
  C45      1.0000 0.58430  0.31610  0.90453  Biso   1.000  C
  N3       1.0000 0.19358  0.71025  0.88546  Biso   1.000  N
  O5       1.0000 0.77807  0.01559  0.95108  Biso   1.000  O
  O6       1.0000 0.79999  0.82729  0.95925  Biso   1.000  O
  H31      1.0000 0.66035  0.74644  0.80229  Biso   1.000  H
  H32      1.0000 0.84141  0.93169  0.76583  Biso   1.000  H
  H33      1.0000 0.58807  0.11076  0.80634  Biso   1.000  H
  H34      1.0000 0.15468  0.09788  0.88519  Biso   1.000  H
  H35      1.0000 0.48920  0.30110  0.81039  Biso   1.000  H
  H36      1.0000 0.28990  0.44915  0.75893  Biso   1.000  H
  H37      1.0000 0.14720  0.64161  0.79465  Biso   1.000  H
  H38      1.0000 0.20358  0.53068  0.97420  Biso   1.000  H
  H39      1.0000 0.49377  0.63839  0.94928  Biso   1.000  H
  H40      1.0000 0.63736  0.49907  0.95730  Biso   1.000  H
  H41      1.0000 0.37925  0.28661  0.93481  Biso   1.000  H
  H42      1.0000 0.79283  0.34297  0.92169  Biso   1.000  H
  H43      1.0000 0.67128  0.24246  0.88085  Biso   1.000  H
  H44      1.0000 0.03151  0.71492  0.91933  Biso   1.000  H
  H45      1.0000 0.60369  0.00508  0.98106  Biso   1.000  H
  C46      1.0000 0.15634  0.08398  0.38834  Biso   1.000  C
  C47      1.0000 0.29406  0.18661  0.36466  Biso   1.000  C
  C48      1.0000 0.54441  0.17695  0.32021  Biso   1.000  C
  C49      1.0000 0.64684  0.07195  0.29993  Biso   1.000  C
  C50      1.0000 0.50689  0.97127  0.32261  Biso   1.000  C
  C51      1.0000 0.26514  0.97864  0.36649  Biso   1.000  C
  C52      1.0000 0.90268  0.08712  0.43515  Biso   1.000  C
  C53      1.0000 0.28387  0.39780  0.36462  Biso   1.000  C
  C54      1.0000 0.39763  0.48102  0.39419  Biso   1.000  C
  C55      1.0000 0.46748  0.59102  0.37436  Biso   1.000  C
  C56      1.0000 0.43115  0.61415  0.32564  Biso   1.000  C
  C57      1.0000 0.32080  0.53102  0.29660  Biso   1.000  C
  C58      1.0000 0.24395  0.42322  0.31620  Biso   1.000  C
  C59      1.0000 0.43604  0.45178  0.44628  Biso   1.000  C
  C60      1.0000 0.58430  0.68390  0.40453  Biso   1.000  C
  N4       1.0000 0.19358  0.28975  0.38546  Biso   1.000  N
  O7       1.0000 0.77807  0.98441  0.45108  Biso   1.000  O
  O8       1.0000 0.79999  0.17271  0.45925  Biso   1.000  O
  H46      1.0000 0.66035  0.25356  0.30229  Biso   1.000  H
  H47      1.0000 0.84141  0.06831  0.26583  Biso   1.000  H
  H48      1.0000 0.58807  0.88924  0.30634  Biso   1.000  H
  H49      1.0000 0.15468  0.90212  0.38519  Biso   1.000  H
  H50      1.0000 0.48920  0.69890  0.31039  Biso   1.000  H
  H51      1.0000 0.28990  0.55085  0.25893  Biso   1.000  H
  H52      1.0000 0.14720  0.35839  0.29465  Biso   1.000  H
  H53      1.0000 0.20358  0.46932  0.47420  Biso   1.000  H
  H54      1.0000 0.49377  0.36161  0.44928  Biso   1.000  H
  H55      1.0000 0.63736  0.50093  0.45730  Biso   1.000  H
  H56      1.0000 0.37925  0.71339  0.43481  Biso   1.000  H
  H57      1.0000 0.79283  0.65703  0.42169  Biso   1.000  H
  H58      1.0000 0.67128  0.75754  0.38085  Biso   1.000  H
  H59      1.0000 0.03151  0.28508  0.41933  Biso   1.000  H
  H60      1.0000 0.60369  0.99492  0.48106  Biso   1.000  H
