data_image0
_cell_length_a       7.57494
_cell_length_b       6.8545
_cell_length_c       30.5187
_cell_angle_alpha    90
_cell_angle_beta     90
_cell_angle_gamma    126.337

_symmetry_space_group_name_H-M    "P 1"
_symmetry_int_tables_number       1

loop_
  _symmetry_equiv_pos_as_xyz
  'x, y, z'

loop_
  _atom_site_label
  _atom_site_occupancy
  _atom_site_fract_x
  _atom_site_fract_y
  _atom_site_fract_z
  _atom_site_thermal_displace_type
  _atom_site_B_iso_or_equiv
  _atom_site_type_symbol
  C1       1.0000 0.72020  0.29146  0.78069  Biso   1.000  C
  C2       1.0000 0.50562  0.13149  0.80161  Biso   1.000  C
  C3       1.0000 0.32931  0.13115  0.78704  Biso   1.000  C
  C4       1.0000 0.12342  0.98145  0.80561  Biso   1.000  C
  C5       1.0000 0.09197  0.82772  0.83985  Biso   1.000  C
  C6       1.0000 0.26143  0.82271  0.85487  Biso   1.000  C
  C7       1.0000 0.47258  0.97258  0.83611  Biso   1.000  C
  C8       1.0000 0.62846  0.82077  0.88460  Biso   1.000  C
  C9       1.0000 0.49868  0.57032  0.87792  Biso   1.000  C
  C10      1.0000 0.48729  0.41787  0.90961  Biso   1.000  C
  C11      1.0000 0.60941  0.51483  0.94793  Biso   1.000  C
  C12      1.0000 0.73670  0.76396  0.95430  Biso   1.000  C
  C13      1.0000 0.74953  0.92385  0.92354  Biso   1.000  C
  C14      1.0000 0.88379  0.19089  0.93218  Biso   1.000  C
  N1       1.0000 0.64218  0.97243  0.85133  Biso   1.000  N
  O1       1.0000 0.72543  0.42637  0.74793  Biso   1.000  O
  O2       1.0000 0.88631  0.30984  0.79070  Biso   1.000  O
  Cl1      1.0000 0.87938  0.87890  0.00358  Biso   1.000  Cl
  H1       1.0000 0.87067  0.51959  0.73498  Biso   1.000  H
  H2       1.0000 0.35888  0.25282  0.76057  Biso   1.000  H
  H3       1.0000 0.98930  0.98388  0.79397  Biso   1.000  H
  H4       1.0000 0.93191  0.71020  0.85527  Biso   1.000  H
  H5       1.0000 0.23363  0.70428  0.88182  Biso   1.000  H
  H6       1.0000 0.78995  0.09860  0.83733  Biso   1.000  H
  H7       1.0000 0.40898  0.49787  0.84732  Biso   1.000  H
  H8       1.0000 0.38687  0.22345  0.90419  Biso   1.000  H
  H9       1.0000 0.60497  0.39939  0.97294  Biso   1.000  H
  H10      1.0000 0.83937  0.22696  0.96373  Biso   1.000  H
  H11      1.0000 0.05908  0.27108  0.93380  Biso   1.000  H
  H12      1.0000 0.85881  0.28372  0.90662  Biso   1.000  H
  C15      1.0000 0.22020  0.29146  0.21931  Biso   1.000  C
  C16      1.0000 0.00562  0.13149  0.19839  Biso   1.000  C
  C17      1.0000 0.82931  0.13115  0.21296  Biso   1.000  C
  C18      1.0000 0.62342  0.98145  0.19439  Biso   1.000  C
  C19      1.0000 0.59197  0.82772  0.16015  Biso   1.000  C
  C20      1.0000 0.76144  0.82271  0.14513  Biso   1.000  C
  C21      1.0000 0.97258  0.97258  0.16389  Biso   1.000  C
  C22      1.0000 0.12847  0.82077  0.11540  Biso   1.000  C
  C23      1.0000 0.99868  0.57032  0.12208  Biso   1.000  C
  C24      1.0000 0.98729  0.41787  0.09039  Biso   1.000  C
  C25      1.0000 0.10941  0.51483  0.05207  Biso   1.000  C
  C26      1.0000 0.23670  0.76396  0.04570  Biso   1.000  C
  C27      1.0000 0.24953  0.92385  0.07646  Biso   1.000  C
  C28      1.0000 0.38379  0.19089  0.06782  Biso   1.000  C
  N2       1.0000 0.14218  0.97243  0.14867  Biso   1.000  N
  O3       1.0000 0.22543  0.42637  0.25207  Biso   1.000  O
  O4       1.0000 0.38631  0.30984  0.20930  Biso   1.000  O
  Cl2      1.0000 0.37938  0.87890  0.99641  Biso   1.000  Cl
  H13      1.0000 0.37067  0.51959  0.26503  Biso   1.000  H
  H14      1.0000 0.85889  0.25282  0.23943  Biso   1.000  H
  H15      1.0000 0.48930  0.98387  0.20603  Biso   1.000  H
  H16      1.0000 0.43191  0.71020  0.14473  Biso   1.000  H
  H17      1.0000 0.73363  0.70428  0.11818  Biso   1.000  H
  H18      1.0000 0.28995  0.09860  0.16267  Biso   1.000  H
  H19      1.0000 0.90898  0.49787  0.15268  Biso   1.000  H
  H20      1.0000 0.88687  0.22344  0.09581  Biso   1.000  H
  H21      1.0000 0.10497  0.39939  0.02706  Biso   1.000  H
  H22      1.0000 0.33937  0.22696  0.03627  Biso   1.000  H
  H23      1.0000 0.55908  0.27108  0.06620  Biso   1.000  H
  H24      1.0000 0.35880  0.28372  0.09338  Biso   1.000  H
  C29      1.0000 0.77980  0.70854  0.28069  Biso   1.000  C
  C30      1.0000 0.99438  0.86851  0.30161  Biso   1.000  C
  C31      1.0000 0.17069  0.86885  0.28704  Biso   1.000  C
  C32      1.0000 0.37658  0.01855  0.30561  Biso   1.000  C
  C33      1.0000 0.40803  0.17228  0.33985  Biso   1.000  C
  C34      1.0000 0.23856  0.17729  0.35487  Biso   1.000  C
  C35      1.0000 0.02742  0.02742  0.33611  Biso   1.000  C
  C36      1.0000 0.87153  0.17923  0.38460  Biso   1.000  C
  C37      1.0000 0.00132  0.42968  0.37792  Biso   1.000  C
  C38      1.0000 0.01271  0.58213  0.40961  Biso   1.000  C
  C39      1.0000 0.89059  0.48517  0.44793  Biso   1.000  C
  C40      1.0000 0.76330  0.23604  0.45430  Biso   1.000  C
  C41      1.0000 0.75047  0.07615  0.42354  Biso   1.000  C
  C42      1.0000 0.61621  0.80911  0.43218  Biso   1.000  C
  N3       1.0000 0.85782  0.02757  0.35133  Biso   1.000  N
  O5       1.0000 0.77457  0.57363  0.24793  Biso   1.000  O
  O6       1.0000 0.61369  0.69016  0.29070  Biso   1.000  O
  Cl3      1.0000 0.62061  0.12110  0.50358  Biso   1.000  Cl
  H25      1.0000 0.62933  0.48041  0.23497  Biso   1.000  H
  H26      1.0000 0.14111  0.74718  0.26057  Biso   1.000  H
  H27      1.0000 0.51070  0.01613  0.29397  Biso   1.000  H
  H28      1.0000 0.56809  0.28980  0.35527  Biso   1.000  H
  H29      1.0000 0.26637  0.29572  0.38182  Biso   1.000  H
  H30      1.0000 0.71005  0.90140  0.33733  Biso   1.000  H
  H31      1.0000 0.09102  0.50213  0.34732  Biso   1.000  H
  H32      1.0000 0.11313  0.77655  0.40419  Biso   1.000  H
  H33      1.0000 0.89503  0.60061  0.47294  Biso   1.000  H
  H34      1.0000 0.66063  0.77304  0.46373  Biso   1.000  H
  H35      1.0000 0.44092  0.72892  0.43380  Biso   1.000  H
  H36      1.0000 0.64119  0.71628  0.40662  Biso   1.000  H
  C43      1.0000 0.27980  0.70854  0.71931  Biso   1.000  C
  C44      1.0000 0.49438  0.86851  0.69839  Biso   1.000  C
  C45      1.0000 0.67069  0.86885  0.71296  Biso   1.000  C
  C46      1.0000 0.87658  0.01855  0.69439  Biso   1.000  C
  C47      1.0000 0.90803  0.17228  0.66015  Biso   1.000  C
  C48      1.0000 0.73856  0.17729  0.64513  Biso   1.000  C
  C49      1.0000 0.52742  0.02742  0.66389  Biso   1.000  C
  C50      1.0000 0.37153  0.17923  0.61540  Biso   1.000  C
  C51      1.0000 0.50132  0.42968  0.62208  Biso   1.000  C
  C52      1.0000 0.51271  0.58213  0.59039  Biso   1.000  C
  C53      1.0000 0.39059  0.48517  0.55207  Biso   1.000  C
  C54      1.0000 0.26330  0.23604  0.54570  Biso   1.000  C
  C55      1.0000 0.25047  0.07615  0.57646  Biso   1.000  C
  C56      1.0000 0.11621  0.80911  0.56782  Biso   1.000  C
  N4       1.0000 0.35782  0.02757  0.64867  Biso   1.000  N
  O7       1.0000 0.27457  0.57363  0.75207  Biso   1.000  O
  O8       1.0000 0.11369  0.69016  0.70930  Biso   1.000  O
  Cl4      1.0000 0.12062  0.12110  0.49642  Biso   1.000  Cl
  H37      1.0000 0.12933  0.48041  0.76503  Biso   1.000  H
  H38      1.0000 0.64111  0.74718  0.73943  Biso   1.000  H
  H39      1.0000 0.01070  0.01613  0.70603  Biso   1.000  H
  H40      1.0000 0.06809  0.28980  0.64473  Biso   1.000  H
  H41      1.0000 0.76637  0.29572  0.61818  Biso   1.000  H
  H42      1.0000 0.21005  0.90140  0.66267  Biso   1.000  H
  H43      1.0000 0.59102  0.50213  0.65268  Biso   1.000  H
  H44      1.0000 0.61313  0.77655  0.59581  Biso   1.000  H
  H45      1.0000 0.39503  0.60061  0.52706  Biso   1.000  H
  H46      1.0000 0.16063  0.77304  0.53627  Biso   1.000  H
  H47      1.0000 0.94092  0.72892  0.56620  Biso   1.000  H
  H48      1.0000 0.14119  0.71628  0.59338  Biso   1.000  H
